data_image0
_chemical_formula_structural       O6C24H8
_chemical_formula_sum              "O6 C24 H8"
_cell_length_a       24.027
_cell_length_b       24.027
_cell_length_c       18
_cell_angle_alpha    90
_cell_angle_beta     90
_cell_angle_gamma    90

_space_group_name_H-M_alt    "P 1"
_space_group_IT_number       1

loop_
  _space_group_symop_operation_xyz
  'x, y, z'

loop_
  _atom_site_type_symbol
  _atom_site_label
  _atom_site_symmetry_multiplicity
  _atom_site_fract_x
  _atom_site_fract_y
  _atom_site_fract_z
  _atom_site_occupancy
  O   O1        1.0  0.26304  0.49999  0.10988  1.0000
  O   O2        1.0  0.73696  0.50000  0.10994  1.0000
  O   O3        1.0  0.26136  0.40687  0.10924  1.0000
  O   O4        1.0  0.73864  0.40688  0.10932  1.0000
  O   O5        1.0  0.26135  0.59311  0.10932  1.0000
  O   O6        1.0  0.73865  0.59312  0.10939  1.0000
  C   C1        1.0  0.44054  0.50000  0.11184  1.0000
  C   C2        1.0  0.55946  0.50000  0.11183  1.0000
  C   C3        1.0  0.46953  0.44801  0.11187  1.0000
  C   C4        1.0  0.53047  0.44801  0.11187  1.0000
  C   C5        1.0  0.46953  0.55200  0.11187  1.0000
  C   C6        1.0  0.53047  0.55200  0.11187  1.0000
  C   C7        1.0  0.38096  0.50000  0.11147  1.0000
  C   C8        1.0  0.61904  0.50000  0.11147  1.0000
  C   C9        1.0  0.35138  0.44900  0.11114  1.0000
  C   C10       1.0  0.64862  0.44900  0.11114  1.0000
  C   C11       1.0  0.35138  0.55099  0.11115  1.0000
  C   C12       1.0  0.64862  0.55100  0.11116  1.0000
  C   C13       1.0  0.43844  0.39868  0.11173  1.0000
  C   C14       1.0  0.56156  0.39868  0.11173  1.0000
  C   C15       1.0  0.43843  0.60133  0.11173  1.0000
  C   C16       1.0  0.56157  0.60133  0.11173  1.0000
  C   C17       1.0  0.38034  0.39896  0.11151  1.0000
  C   C18       1.0  0.61966  0.39896  0.11151  1.0000
  C   C19       1.0  0.38033  0.60104  0.11152  1.0000
  C   C20       1.0  0.61967  0.60104  0.11152  1.0000
  C   C21       1.0  0.29004  0.44846  0.11017  1.0000
  C   C22       1.0  0.70997  0.44846  0.11022  1.0000
  C   C23       1.0  0.29003  0.55153  0.11021  1.0000
  C   C24       1.0  0.70997  0.55153  0.11025  1.0000
  H   H1        1.0  0.45951  0.35854  0.11167  1.0000
  H   H2        1.0  0.54049  0.35854  0.11166  1.0000
  H   H3        1.0  0.45950  0.64146  0.11166  1.0000
  H   H4        1.0  0.54050  0.64147  0.11166  1.0000
  H   H5        1.0  0.35680  0.36013  0.11149  1.0000
  H   H6        1.0  0.64320  0.36014  0.11149  1.0000
  H   H7        1.0  0.35679  0.63986  0.11150  1.0000
  H   H8        1.0  0.64321  0.63987  0.11150  1.0000
