data_image0
_chemical_formula_structural       Ag99C48H16O12
_chemical_formula_sum              "Ag99 C48 H16 O12"
_cell_length_a       12.6235
_cell_length_b       18.9905
_cell_length_c       50
_cell_angle_alpha    90
_cell_angle_beta     90
_cell_angle_gamma    91.0023

_space_group_name_H-M_alt    "P 1"
_space_group_IT_number       1

loop_
  _space_group_symop_operation_xyz
  'x, y, z'

loop_
  _atom_site_type_symbol
  _atom_site_label
  _atom_site_symmetry_multiplicity
  _atom_site_fract_x
  _atom_site_fract_y
  _atom_site_fract_z
  _atom_site_occupancy
  Ag  Ag1       1.0  0.33400  0.66591  0.05602  1.0000
  Ag  Ag2       1.0  0.14141  0.37374  0.00909  1.0000
  Ag  Ag3       1.0  0.17172  0.52525  0.00909  1.0000
  Ag  Ag4       1.0  0.20202  0.67677  0.00909  1.0000
  Ag  Ag5       1.0  0.23232  0.82828  0.00909  1.0000
  Ag  Ag6       1.0  0.26263  0.97980  0.00909  1.0000
  Ag  Ag7       1.0  0.29293  0.13131  0.00909  1.0000
  Ag  Ag8       1.0  0.32323  0.28283  0.00909  1.0000
  Ag  Ag9       1.0  0.35354  0.43434  0.00909  1.0000
  Ag  Ag10      1.0  0.11111  0.22222  0.00909  1.0000
  Ag  Ag11      1.0  0.38384  0.58586  0.00909  1.0000
  Ag  Ag12      1.0  0.44444  0.88889  0.00909  1.0000
  Ag  Ag13      1.0  0.47475  0.04040  0.00909  1.0000
  Ag  Ag14      1.0  0.50505  0.19192  0.00909  1.0000
  Ag  Ag15      1.0  0.53535  0.34343  0.00909  1.0000
  Ag  Ag16      1.0  0.56566  0.49495  0.00909  1.0000
  Ag  Ag17      1.0  0.59596  0.64646  0.00909  1.0000
  Ag  Ag18      1.0  0.62626  0.79798  0.00909  1.0000
  Ag  Ag19      1.0  0.65657  0.94949  0.00909  1.0000
  Ag  Ag20      1.0  0.41414  0.73737  0.00909  1.0000
  Ag  Ag21      1.0  0.68687  0.10101  0.00909  1.0000
  Ag  Ag22      1.0  0.08081  0.07071  0.00909  1.0000
  Ag  Ag23      1.0  0.94030  0.69696  0.05502  1.0000
  Ag  Ag24      1.0  0.39339  0.96979  0.05529  1.0000
  Ag  Ag25      1.0  0.42410  0.12085  0.05680  1.0000
  Ag  Ag26      1.0  0.45453  0.27195  0.05651  1.0000
  Ag  Ag27      1.0  0.48614  0.42391  0.05459  1.0000
  Ag  Ag28      1.0  0.51611  0.57670  0.05651  1.0000
  Ag  Ag29      1.0  0.54546  0.72765  0.05674  1.0000
  Ag  Ag30      1.0  0.57512  0.87878  0.05502  1.0000
  Ag  Ag31      1.0  0.60686  0.03020  0.05563  1.0000
  Ag  Ag32      1.0  0.96999  0.84814  0.05673  1.0000
  Ag  Ag33      1.0  0.63587  0.18143  0.05569  1.0000
  Ag  Ag34      1.0  0.69836  0.48535  0.05626  1.0000
  Ag  Ag35      1.0  0.72742  0.63704  0.05694  1.0000
  Ag  Ag36      1.0  0.75777  0.78789  0.05639  1.0000
  Ag  Ag37      1.0  0.78801  0.93875  0.05695  1.0000
  Ag  Ag38      1.0  0.81692  0.09040  0.05628  1.0000
  Ag  Ag39      1.0  0.84810  0.24256  0.05534  1.0000
  Ag  Ag40      1.0  0.87932  0.39427  0.05568  1.0000
  Ag  Ag41      1.0  0.90844  0.54549  0.05562  1.0000
  Ag  Ag42      1.0  0.66711  0.33316  0.05533  1.0000
  Ag  Ag43      1.0  0.36288  0.81818  0.05528  1.0000
  Ag  Ag44      1.0  0.71717  0.25253  0.00909  1.0000
  Ag  Ag45      1.0  0.77778  0.55556  0.00909  1.0000
  Ag  Ag46      1.0  0.52525  0.95960  0.96180  1.0000
  Ag  Ag47      1.0  0.55556  0.11111  0.96180  1.0000
  Ag  Ag48      1.0  0.58586  0.26263  0.96180  1.0000
  Ag  Ag49      1.0  0.61616  0.41414  0.96180  1.0000
  Ag  Ag50      1.0  0.64646  0.56566  0.96180  1.0000
  Ag  Ag51      1.0  0.67677  0.71717  0.96180  1.0000
  Ag  Ag52      1.0  0.70707  0.86869  0.96180  1.0000
  Ag  Ag53      1.0  0.73737  0.02020  0.96180  1.0000
  Ag  Ag54      1.0  0.49495  0.80808  0.96180  1.0000
  Ag  Ag55      1.0  0.76768  0.17172  0.96180  1.0000
  Ag  Ag56      1.0  0.82828  0.47475  0.96180  1.0000
  Ag  Ag57      1.0  0.85859  0.62626  0.96180  1.0000
  Ag  Ag58      1.0  0.88889  0.77778  0.96180  1.0000
  Ag  Ag59      1.0  0.91919  0.92929  0.96180  1.0000
  Ag  Ag60      1.0  0.94949  0.08081  0.96180  1.0000
  Ag  Ag61      1.0  0.97980  0.23232  0.96180  1.0000
  Ag  Ag62      1.0  0.01010  0.38384  0.96180  1.0000
  Ag  Ag63      1.0  0.04040  0.53535  0.96180  1.0000
  Ag  Ag64      1.0  0.79798  0.32323  0.96180  1.0000
  Ag  Ag65      1.0  0.74747  0.40404  0.00909  1.0000
  Ag  Ag66      1.0  0.46465  0.65657  0.96180  1.0000
  Ag  Ag67      1.0  0.40404  0.35354  0.96180  1.0000
  Ag  Ag68      1.0  0.80808  0.70707  0.00909  1.0000
  Ag  Ag69      1.0  0.83838  0.85859  0.00909  1.0000
  Ag  Ag70      1.0  0.86869  0.01010  0.00909  1.0000
  Ag  Ag71      1.0  0.89899  0.16162  0.00909  1.0000
  Ag  Ag72      1.0  0.92929  0.31313  0.00909  1.0000
  Ag  Ag73      1.0  0.95960  0.46465  0.00909  1.0000
  Ag  Ag74      1.0  0.98990  0.61616  0.00909  1.0000
  Ag  Ag75      1.0  0.02020  0.76768  0.00909  1.0000
  Ag  Ag76      1.0  0.43434  0.50505  0.96180  1.0000
  Ag  Ag77      1.0  0.05050  0.91919  0.00909  1.0000
  Ag  Ag78      1.0  0.16162  0.14141  0.96180  1.0000
  Ag  Ag79      1.0  0.19192  0.29293  0.96180  1.0000
  Ag  Ag80      1.0  0.22222  0.44444  0.96180  1.0000
  Ag  Ag81      1.0  0.25253  0.59596  0.96180  1.0000
  Ag  Ag82      1.0  0.28283  0.74747  0.96180  1.0000
  Ag  Ag83      1.0  0.31313  0.89899  0.96180  1.0000
  Ag  Ag84      1.0  0.34343  0.05051  0.96180  1.0000
  Ag  Ag85      1.0  0.37374  0.20202  0.96180  1.0000
  Ag  Ag86      1.0  0.13131  0.98990  0.96180  1.0000
  Ag  Ag87      1.0  0.07071  0.68687  0.96180  1.0000
  Ag  Ag88      1.0  0.10101  0.83838  0.96180  1.0000
  Ag  Ag89      1.0  0.27224  0.36355  0.05672  1.0000
  Ag  Ag90      1.0  0.24305  0.21220  0.05671  1.0000
  Ag  Ag91      1.0  0.21142  0.06096  0.05613  1.0000
  Ag  Ag92      1.0  0.18127  0.90989  0.05601  1.0000
  Ag  Ag93      1.0  0.15250  0.75759  0.05528  1.0000
  Ag  Ag94      1.0  0.12187  0.60592  0.05529  1.0000
  Ag  Ag95      1.0  0.09112  0.45487  0.05679  1.0000
  Ag  Ag96      1.0  0.06077  0.30377  0.05650  1.0000
  Ag  Ag97      1.0  0.02909  0.15185  0.05459  1.0000
  Ag  Ag98      1.0  0.99927  0.99912  0.05653  1.0000
  Ag  Ag99      1.0  0.30384  0.51487  0.05613  1.0000
  C   C1        1.0  0.47168  0.73939  0.11351  1.0000
  C   C2        1.0  0.43269  0.88495  0.11400  1.0000
  C   C3        1.0  0.41293  0.95822  0.11304  1.0000
  C   C4        1.0  0.55629  0.78695  0.11323  1.0000
  C   C5        1.0  0.53823  0.86000  0.11353  1.0000
  C   C6        1.0  0.70679  0.48234  0.11239  1.0000
  C   C7        1.0  0.62672  0.90945  0.11387  1.0000
  C   C8        1.0  0.51497  0.50325  0.11318  1.0000
  C   C9        1.0  0.38885  0.40187  0.11327  1.0000
  C   C10       1.0  0.60223  0.45559  0.11336  1.0000
  C   C11       1.0  0.30868  0.98305  0.11215  1.0000
  C   C12       1.0  0.49983  0.00796  0.11368  1.0000
  C   C13       1.0  0.34479  0.83614  0.11424  1.0000
  C   C14       1.0  0.29162  0.63975  0.11257  1.0000
  C   C15       1.0  0.22350  0.93608  0.11256  1.0000
  C   C16       1.0  0.23885  0.86245  0.11398  1.0000
  C   C17       1.0  0.27624  0.71339  0.11396  1.0000
  C   C18       1.0  0.58270  0.38179  0.11425  1.0000
  C   C19       1.0  0.15006  0.81354  0.11416  1.0000
  C   C20       1.0  0.17030  0.73969  0.11419  1.0000
  C   C21       1.0  0.20646  0.59277  0.11213  1.0000
  C   C22       1.0  0.04339  0.83645  0.11346  1.0000
  C   C23       1.0  0.08241  0.69088  0.11393  1.0000
  C   C24       1.0  0.10219  0.61761  0.11297  1.0000
  C   C25       1.0  0.95879  0.78888  0.11317  1.0000
  C   C26       1.0  0.97687  0.71582  0.11345  1.0000
  C   C27       1.0  0.01531  0.56786  0.11365  1.0000
  C   C28       1.0  0.36501  0.76230  0.11420  1.0000
  C   C29       1.0  0.79159  0.43687  0.11302  1.0000
  C   C30       1.0  0.47717  0.35456  0.11342  1.0000
  C   C31       1.0  0.67041  0.33462  0.11457  1.0000
  C   C32       1.0  0.00021  0.07259  0.11317  1.0000
  C   C33       1.0  0.12635  0.17396  0.11329  1.0000
  C   C34       1.0  0.91296  0.12026  0.11334  1.0000
  C   C35       1.0  0.80842  0.09351  0.11235  1.0000
  C   C36       1.0  0.03802  0.22129  0.11344  1.0000
  C   C37       1.0  0.93250  0.19405  0.11426  1.0000
  C   C38       1.0  0.72361  0.13898  0.11298  1.0000
  C   C39       1.0  0.45895  0.28121  0.11265  1.0000
  C   C40       1.0  0.84479  0.24123  0.11457  1.0000
  C   C41       1.0  0.05625  0.29463  0.11269  1.0000
  C   C42       1.0  0.54356  0.23541  0.11326  1.0000
  C   C43       1.0  0.77641  0.36293  0.11440  1.0000
  C   C44       1.0  0.65013  0.26027  0.11442  1.0000
  C   C45       1.0  0.86507  0.31558  0.11445  1.0000
  C   C46       1.0  0.97164  0.34044  0.11330  1.0000
  C   C47       1.0  0.73879  0.21292  0.11437  1.0000
  C   C48       1.0  0.88840  0.66636  0.11381  1.0000
  H   H1        1.0  0.21933  0.53611  0.11143  1.0000
  H   H2        1.0  0.79465  0.03662  0.11168  1.0000
  H   H3        1.0  0.64391  0.11623  0.11251  1.0000
  H   H4        1.0  0.13755  0.31525  0.11221  1.0000
  H   H5        1.0  0.98937  0.39668  0.11318  1.0000
  H   H6        1.0  0.52583  0.17916  0.11313  1.0000
  H   H7        1.0  0.37764  0.26059  0.11217  1.0000
  H   H8        1.0  0.37117  0.61845  0.11227  1.0000
  H   H9        1.0  0.72055  0.53923  0.11173  1.0000
  H   H10       1.0  0.87129  0.45962  0.11256  1.0000
  H   H11       1.0  0.87755  0.80777  0.11294  1.0000
  H   H12       1.0  0.48905  0.68342  0.11368  1.0000
  H   H13       1.0  0.29581  0.03972  0.11144  1.0000
  H   H14       1.0  0.14396  0.95739  0.11223  1.0000
  H   H15       1.0  0.63752  0.76805  0.11299  1.0000
  H   H16       1.0  0.02602  0.89241  0.11366  1.0000
  O   O1        1.0  0.99319  0.00784  0.11076  1.0000
  O   O2        1.0  0.10240  0.10146  0.11463  1.0000
  O   O3        1.0  0.22105  0.18992  0.11115  1.0000
  O   O4        1.0  0.29415  0.38591  0.11112  1.0000
  O   O5        1.0  0.41278  0.47437  0.11462  1.0000
  O   O6        1.0  0.02317  0.50328  0.11227  1.0000
  O   O7        1.0  0.49201  0.07254  0.11228  1.0000
  O   O8        1.0  0.60198  0.98155  0.11516  1.0000
  O   O9        1.0  0.72161  0.89605  0.11256  1.0000
  O   O10       1.0  0.79350  0.67973  0.11252  1.0000
  O   O11       1.0  0.52198  0.56801  0.11079  1.0000
  O   O12       1.0  0.91316  0.59426  0.11513  1.0000
