data_image0
_chemical_formula_structural       Cu238O6C24H8
_chemical_formula_sum              "Cu238 O6 C24 H8"
_cell_length_a       20.4
_cell_length_b       22.0836
_cell_length_c       30.8339
_cell_angle_alpha    90
_cell_angle_beta     90
_cell_angle_gamma    90

_space_group_name_H-M_alt    "P 1"
_space_group_IT_number       1

loop_
  _space_group_symop_operation_xyz
  'x, y, z'

loop_
  _atom_site_type_symbol
  _atom_site_label
  _atom_site_symmetry_multiplicity
  _atom_site_fract_x
  _atom_site_fract_y
  _atom_site_fract_z
  _atom_site_occupancy
  Cu  Cu1       1.0  0.87534  0.00059  0.17399  1.0000
  Cu  Cu2       1.0  0.31271  0.10069  0.17337  1.0000
  Cu  Cu3       1.0  0.18755  0.10063  0.17334  1.0000
  Cu  Cu4       1.0  0.06262  0.10062  0.17357  1.0000
  Cu  Cu5       1.0  0.75047  0.00055  0.17344  1.0000
  Cu  Cu6       1.0  0.06250  0.03374  0.04018  1.0000
  Cu  Cu7       1.0  0.50027  0.00103  0.17347  1.0000
  Cu  Cu8       1.0  0.37525  0.00092  0.17359  1.0000
  Cu  Cu9       1.0  0.24998  0.00062  0.17351  1.0000
  Cu  Cu10      1.0  0.43783  0.10085  0.17344  1.0000
  Cu  Cu11      1.0  0.62532  0.00089  0.17365  1.0000
  Cu  Cu12      1.0  0.56285  0.10080  0.17344  1.0000
  Cu  Cu13      1.0  0.87537  0.20067  0.17336  1.0000
  Cu  Cu14      1.0  0.81300  0.10053  0.17334  1.0000
  Cu  Cu15      1.0  0.93782  0.10067  0.17356  1.0000
  Cu  Cu16      1.0  0.00019  0.20064  0.17354  1.0000
  Cu  Cu17      1.0  0.12511  0.20066  0.17345  1.0000
  Cu  Cu18      1.0  0.25022  0.20086  0.17336  1.0000
  Cu  Cu19      1.0  0.37518  0.20051  0.17352  1.0000
  Cu  Cu20      1.0  0.50044  0.20055  0.17357  1.0000
  Cu  Cu21      1.0  0.62527  0.20067  0.17348  1.0000
  Cu  Cu22      1.0  0.75030  0.20068  0.17333  1.0000
  Cu  Cu23      1.0  0.12517  0.00064  0.17397  1.0000
  Cu  Cu24      1.0  0.06268  0.30068  0.17352  1.0000
  Cu  Cu25      1.0  0.68777  0.10069  0.17338  1.0000
  Cu  Cu26      1.0  0.00024  0.00037  0.17361  1.0000
  Cu  Cu27      1.0  0.62524  0.86697  0.10702  1.0000
  Cu  Cu28      1.0  0.81281  0.96698  0.10692  1.0000
  Cu  Cu29      1.0  0.75028  0.66714  0.10688  1.0000
  Cu  Cu30      1.0  0.87548  0.66739  0.10715  1.0000
  Cu  Cu31      1.0  0.06272  0.76711  0.10688  1.0000
  Cu  Cu32      1.0  0.31257  0.76699  0.10717  1.0000
  Cu  Cu33      1.0  0.43778  0.76732  0.10651  1.0000
  Cu  Cu34      1.0  0.56271  0.76708  0.10698  1.0000
  Cu  Cu35      1.0  0.68774  0.76703  0.10704  1.0000
  Cu  Cu36      1.0  0.81277  0.76715  0.10693  1.0000
  Cu  Cu37      1.0  0.93782  0.76701  0.10732  1.0000
  Cu  Cu38      1.0  0.00030  0.86712  0.10697  1.0000
  Cu  Cu39      1.0  0.12522  0.86710  0.10682  1.0000
  Cu  Cu40      1.0  0.25019  0.86711  0.10697  1.0000
  Cu  Cu41      1.0  0.37520  0.86724  0.10678  1.0000
  Cu  Cu42      1.0  0.50021  0.86707  0.10689  1.0000
  Cu  Cu43      1.0  0.18751  0.30064  0.17322  1.0000
  Cu  Cu44      1.0  0.75028  0.86703  0.10693  1.0000
  Cu  Cu45      1.0  0.87531  0.86709  0.10685  1.0000
  Cu  Cu46      1.0  0.06277  0.96704  0.10691  1.0000
  Cu  Cu47      1.0  0.18770  0.96702  0.10695  1.0000
  Cu  Cu48      1.0  0.31270  0.96698  0.10709  1.0000
  Cu  Cu49      1.0  0.43774  0.96698  0.10699  1.0000
  Cu  Cu50      1.0  0.56274  0.96695  0.10702  1.0000
  Cu  Cu51      1.0  0.68779  0.96693  0.10703  1.0000
  Cu  Cu52      1.0  0.93783  0.96701  0.10698  1.0000
  Cu  Cu53      1.0  0.31267  0.30063  0.17322  1.0000
  Cu  Cu54      1.0  0.62562  0.40056  0.17363  1.0000
  Cu  Cu55      1.0  0.56300  0.30047  0.17322  1.0000
  Cu  Cu56      1.0  0.18762  0.70063  0.17393  1.0000
  Cu  Cu57      1.0  0.31303  0.70097  0.17351  1.0000
  Cu  Cu58      1.0  0.43789  0.70139  0.17353  1.0000
  Cu  Cu59      1.0  0.56261  0.70114  0.17313  1.0000
  Cu  Cu60      1.0  0.68753  0.70083  0.17365  1.0000
  Cu  Cu61      1.0  0.81275  0.70035  0.17385  1.0000
  Cu  Cu62      1.0  0.93776  0.70029  0.17391  1.0000
  Cu  Cu63      1.0  0.00034  0.80015  0.17390  1.0000
  Cu  Cu64      1.0  0.12548  0.80055  0.17415  1.0000
  Cu  Cu65      1.0  0.25016  0.80056  0.17390  1.0000
  Cu  Cu66      1.0  0.37531  0.80111  0.17344  1.0000
  Cu  Cu67      1.0  0.50019  0.80118  0.17322  1.0000
  Cu  Cu68      1.0  0.62516  0.80087  0.17369  1.0000
  Cu  Cu69      1.0  0.75040  0.80055  0.17374  1.0000
  Cu  Cu70      1.0  0.87497  0.80046  0.17425  1.0000
  Cu  Cu71      1.0  0.06271  0.90048  0.17380  1.0000
  Cu  Cu72      1.0  0.18755  0.90038  0.17382  1.0000
  Cu  Cu73      1.0  0.31278  0.90077  0.17364  1.0000
  Cu  Cu74      1.0  0.43788  0.90116  0.17338  1.0000
  Cu  Cu75      1.0  0.56258  0.90114  0.17342  1.0000
  Cu  Cu76      1.0  0.68767  0.90069  0.17369  1.0000
  Cu  Cu77      1.0  0.81292  0.90039  0.17376  1.0000
  Cu  Cu78      1.0  0.93777  0.90040  0.17386  1.0000
  Cu  Cu79      1.0  0.06274  0.70035  0.17371  1.0000
  Cu  Cu80      1.0  0.87517  0.60010  0.17344  1.0000
  Cu  Cu81      1.0  0.75051  0.60039  0.17339  1.0000
  Cu  Cu82      1.0  0.62583  0.60096  0.17458  1.0000
  Cu  Cu83      1.0  0.68776  0.30050  0.17330  1.0000
  Cu  Cu84      1.0  0.81286  0.30068  0.17328  1.0000
  Cu  Cu85      1.0  0.93771  0.30072  0.17348  1.0000
  Cu  Cu86      1.0  0.00028  0.40069  0.17359  1.0000
  Cu  Cu87      1.0  0.12510  0.40054  0.17327  1.0000
  Cu  Cu88      1.0  0.24974  0.40070  0.17335  1.0000
  Cu  Cu89      1.0  0.37533  0.40087  0.17270  1.0000
  Cu  Cu90      1.0  0.50025  0.40081  0.17258  1.0000
  Cu  Cu91      1.0  0.62533  0.66702  0.10696  1.0000
  Cu  Cu92      1.0  0.75045  0.40050  0.17315  1.0000
  Cu  Cu93      1.0  0.87525  0.40060  0.17317  1.0000
  Cu  Cu94      1.0  0.43779  0.29997  0.17487  1.0000
  Cu  Cu95      1.0  0.06269  0.50053  0.17348  1.0000
  Cu  Cu96      1.0  0.31266  0.50099  0.17181  1.0000
  Cu  Cu97      1.0  0.43778  0.50082  0.17184  1.0000
  Cu  Cu98      1.0  0.56283  0.50083  0.17223  1.0000
  Cu  Cu99      1.0  0.68779  0.50046  0.17315  1.0000
  Cu  Cu100     1.0  0.81270  0.50040  0.17318  1.0000
  Cu  Cu101     1.0  0.93759  0.50058  0.17322  1.0000
  Cu  Cu102     1.0  -0.00005  0.60018  0.17358  1.0000
  Cu  Cu103     1.0  0.12510  0.60034  0.17357  1.0000
  Cu  Cu104     1.0  0.24968  0.60082  0.17435  1.0000
  Cu  Cu105     1.0  0.37513  0.60071  0.17215  1.0000
  Cu  Cu106     1.0  0.50025  0.60080  0.17220  1.0000
  Cu  Cu107     1.0  0.18744  0.50049  0.17299  1.0000
  Cu  Cu108     1.0  0.50038  0.66710  0.10654  1.0000
  Cu  Cu109     1.0  0.18766  0.76716  0.10697  1.0000
  Cu  Cu110     1.0  0.25016  0.66727  0.10715  1.0000
  Cu  Cu111     1.0  0.31270  0.43378  0.04007  1.0000
  Cu  Cu112     1.0  0.43768  0.43368  0.04031  1.0000
  Cu  Cu113     1.0  0.56264  0.43372  0.04020  1.0000
  Cu  Cu114     1.0  0.68788  0.43379  0.04010  1.0000
  Cu  Cu115     1.0  0.81285  0.43364  0.04026  1.0000
  Cu  Cu116     1.0  0.93786  0.43377  0.04017  1.0000
  Cu  Cu117     1.0  0.00004  0.53387  0.04023  1.0000
  Cu  Cu118     1.0  0.12494  0.53373  0.04029  1.0000
  Cu  Cu119     1.0  0.24991  0.53401  0.04000  1.0000
  Cu  Cu120     1.0  0.37513  0.53376  0.04014  1.0000
  Cu  Cu121     1.0  0.50028  0.53374  0.04023  1.0000
  Cu  Cu122     1.0  0.62522  0.53389  0.04019  1.0000
  Cu  Cu123     1.0  0.75031  0.53384  0.04017  1.0000
  Cu  Cu124     1.0  0.87529  0.53376  0.04012  1.0000
  Cu  Cu125     1.0  0.06242  0.63379  0.04027  1.0000
  Cu  Cu126     1.0  0.18759  0.63394  0.04025  1.0000
  Cu  Cu127     1.0  0.31257  0.63419  0.04011  1.0000
  Cu  Cu128     1.0  0.43755  0.63397  0.04018  1.0000
  Cu  Cu129     1.0  0.56281  0.63387  0.04022  1.0000
  Cu  Cu130     1.0  0.68780  0.63399  0.04026  1.0000
  Cu  Cu131     1.0  0.81284  0.63394  0.04030  1.0000
  Cu  Cu132     1.0  0.93779  0.63405  0.04007  1.0000
  Cu  Cu133     1.0  0.12512  0.73391  0.04022  1.0000
  Cu  Cu134     1.0  0.25014  0.73406  0.04029  1.0000
  Cu  Cu135     1.0  0.37498  0.73412  0.04017  1.0000
  Cu  Cu136     1.0  0.37488  0.66745  0.10694  1.0000
  Cu  Cu137     1.0  0.62523  0.73401  0.04035  1.0000
  Cu  Cu138     1.0  0.75022  0.73405  0.04025  1.0000
  Cu  Cu139     1.0  0.87541  0.73404  0.04025  1.0000
  Cu  Cu140     1.0  0.18726  0.43372  0.04010  1.0000
  Cu  Cu141     1.0  0.06244  0.83400  0.04014  1.0000
  Cu  Cu142     1.0  0.06247  0.43368  0.04033  1.0000
  Cu  Cu143     1.0  0.75038  0.33367  0.04016  1.0000
  Cu  Cu144     1.0  0.18766  0.03369  0.04018  1.0000
  Cu  Cu145     1.0  0.31270  0.03361  0.04033  1.0000
  Cu  Cu146     1.0  0.43760  0.03374  0.04022  1.0000
  Cu  Cu147     1.0  0.56279  0.03371  0.04023  1.0000
  Cu  Cu148     1.0  0.68778  0.03360  0.04025  1.0000
  Cu  Cu149     1.0  0.81279  0.03377  0.04020  1.0000
  Cu  Cu150     1.0  0.93790  0.03373  0.04021  1.0000
  Cu  Cu151     1.0  0.00002  0.13371  0.04021  1.0000
  Cu  Cu152     1.0  0.12509  0.13380  0.04027  1.0000
  Cu  Cu153     1.0  0.25010  0.13364  0.04024  1.0000
  Cu  Cu154     1.0  0.37518  0.13364  0.04026  1.0000
  Cu  Cu155     1.0  0.50023  0.13377  0.04022  1.0000
  Cu  Cu156     1.0  0.62519  0.13364  0.04021  1.0000
  Cu  Cu157     1.0  0.75035  0.13371  0.04022  1.0000
  Cu  Cu158     1.0  0.87538  0.13378  0.04025  1.0000
  Cu  Cu159     1.0  0.06255  0.23370  0.04032  1.0000
  Cu  Cu160     1.0  0.18747  0.23373  0.04023  1.0000
  Cu  Cu161     1.0  0.31272  0.23369  0.04023  1.0000
  Cu  Cu162     1.0  0.43765  0.23380  0.04032  1.0000
  Cu  Cu163     1.0  0.56263  0.23373  0.04022  1.0000
  Cu  Cu164     1.0  0.68784  0.23367  0.04015  1.0000
  Cu  Cu165     1.0  0.81282  0.23369  0.04028  1.0000
  Cu  Cu166     1.0  0.93779  0.23373  0.04024  1.0000
  Cu  Cu167     1.0  0.00010  0.33375  0.04022  1.0000
  Cu  Cu168     1.0  0.12492  0.33365  0.04029  1.0000
  Cu  Cu169     1.0  0.25005  0.33376  0.04018  1.0000
  Cu  Cu170     1.0  0.37529  0.33374  0.04027  1.0000
  Cu  Cu171     1.0  0.50008  0.33378  0.04040  1.0000
  Cu  Cu172     1.0  0.62514  0.33371  0.04016  1.0000
  Cu  Cu173     1.0  0.87548  0.33378  0.04039  1.0000
  Cu  Cu174     1.0  0.18771  0.83402  0.04018  1.0000
  Cu  Cu175     1.0  0.50036  0.73399  0.04012  1.0000
  Cu  Cu176     1.0  0.43760  0.83418  0.04009  1.0000
  Cu  Cu177     1.0  0.75025  0.26689  0.10692  1.0000
  Cu  Cu178     1.0  0.87524  0.26693  0.10679  1.0000
  Cu  Cu179     1.0  0.06270  0.36695  0.10704  1.0000
  Cu  Cu180     1.0  0.31263  0.83402  0.04038  1.0000
  Cu  Cu181     1.0  0.31296  0.36705  0.10711  1.0000
  Cu  Cu182     1.0  0.43749  0.36702  0.10748  1.0000
  Cu  Cu183     1.0  0.56277  0.36685  0.10693  1.0000
  Cu  Cu184     1.0  0.68769  0.36685  0.10682  1.0000
  Cu  Cu185     1.0  0.81260  0.36673  0.10671  1.0000
  Cu  Cu186     1.0  0.93834  0.36711  0.10714  1.0000
  Cu  Cu187     1.0  0.00025  0.46706  0.10702  1.0000
  Cu  Cu188     1.0  0.12507  0.46691  0.10693  1.0000
  Cu  Cu189     1.0  0.24980  0.46690  0.10622  1.0000
  Cu  Cu190     1.0  0.62529  0.26689  0.10685  1.0000
  Cu  Cu191     1.0  0.37521  0.46662  0.10691  1.0000
  Cu  Cu192     1.0  0.62536  0.46679  0.10674  1.0000
  Cu  Cu193     1.0  0.75015  0.46679  0.10672  1.0000
  Cu  Cu194     1.0  0.87531  0.46691  0.10650  1.0000
  Cu  Cu195     1.0  0.06263  0.56701  0.10697  1.0000
  Cu  Cu196     1.0  0.18748  0.56697  0.10677  1.0000
  Cu  Cu197     1.0  0.31244  0.56736  0.10614  1.0000
  Cu  Cu198     1.0  0.43774  0.56703  0.10649  1.0000
  Cu  Cu199     1.0  0.56286  0.56692  0.10680  1.0000
  Cu  Cu200     1.0  0.68777  0.56695  0.10683  1.0000
  Cu  Cu201     1.0  0.81264  0.56699  0.10662  1.0000
  Cu  Cu202     1.0  0.93770  0.56711  0.10621  1.0000
  Cu  Cu203     1.0  0.00024  0.66713  0.10701  1.0000
  Cu  Cu204     1.0  0.12509  0.66702  0.10686  1.0000
  Cu  Cu205     1.0  0.50036  0.46678  0.10674  1.0000
  Cu  Cu206     1.0  0.50027  0.26694  0.10697  1.0000
  Cu  Cu207     1.0  0.18749  0.36680  0.10662  1.0000
  Cu  Cu208     1.0  0.25020  0.26698  0.10686  1.0000
  Cu  Cu209     1.0  0.25021  0.06695  0.10695  1.0000
  Cu  Cu210     1.0  0.37519  0.26697  0.10702  1.0000
  Cu  Cu211     1.0  0.00032  0.06701  0.10699  1.0000
  Cu  Cu212     1.0  0.87541  0.93419  0.04015  1.0000
  Cu  Cu213     1.0  0.75018  0.93410  0.04018  1.0000
  Cu  Cu214     1.0  0.62526  0.93402  0.04032  1.0000
  Cu  Cu215     1.0  0.37524  0.06695  0.10698  1.0000
  Cu  Cu216     1.0  0.50028  0.93416  0.04017  1.0000
  Cu  Cu217     1.0  0.25021  0.93405  0.04030  1.0000
  Cu  Cu218     1.0  0.12515  0.93411  0.04010  1.0000
  Cu  Cu219     1.0  0.93797  0.83402  0.04028  1.0000
  Cu  Cu220     1.0  0.81271  0.83407  0.04017  1.0000
  Cu  Cu221     1.0  0.68773  0.83402  0.04032  1.0000
  Cu  Cu222     1.0  0.56287  0.83405  0.04025  1.0000
  Cu  Cu223     1.0  0.37506  0.93418  0.04022  1.0000
  Cu  Cu224     1.0  0.50024  0.06693  0.10691  1.0000
  Cu  Cu225     1.0  0.12524  0.06699  0.10690  1.0000
  Cu  Cu226     1.0  0.75031  0.06693  0.10692  1.0000
  Cu  Cu227     1.0  0.00031  0.26700  0.10702  1.0000
  Cu  Cu228     1.0  0.93786  0.16699  0.10694  1.0000
  Cu  Cu229     1.0  0.81285  0.16693  0.10696  1.0000
  Cu  Cu230     1.0  0.62529  0.06690  0.10695  1.0000
  Cu  Cu231     1.0  0.68781  0.16690  0.10687  1.0000
  Cu  Cu232     1.0  0.56277  0.16691  0.10690  1.0000
  Cu  Cu233     1.0  0.43774  0.16695  0.10695  1.0000
  Cu  Cu234     1.0  0.31272  0.16696  0.10693  1.0000
  Cu  Cu235     1.0  0.18775  0.16697  0.10693  1.0000
  Cu  Cu236     1.0  0.06276  0.16694  0.10699  1.0000
  Cu  Cu237     1.0  0.87533  0.06696  0.10690  1.0000
  Cu  Cu238     1.0  0.12521  0.26692  0.10701  1.0000
  O   O1        1.0  0.16209  0.45281  0.27096  1.0000
  O   O2        1.0  0.72027  0.45282  0.27096  1.0000
  O   O3        1.0  0.16011  0.35150  0.27096  1.0000
  O   O4        1.0  0.72225  0.35150  0.27096  1.0000
  O   O5        1.0  0.16009  0.55413  0.27096  1.0000
  O   O6        1.0  0.72226  0.55413  0.27096  1.0000
  C   C1        1.0  0.37115  0.45282  0.26610  1.0000
  C   C2        1.0  0.51121  0.45282  0.26610  1.0000
  C   C3        1.0  0.40529  0.39625  0.26612  1.0000
  C   C4        1.0  0.47706  0.39625  0.26612  1.0000
  C   C5        1.0  0.40529  0.50939  0.26612  1.0000
  C   C6        1.0  0.47706  0.50939  0.26612  1.0000
  C   C7        1.0  0.30097  0.45282  0.26589  1.0000
  C   C8        1.0  0.58138  0.45282  0.26589  1.0000
  C   C9        1.0  0.26614  0.39734  0.26569  1.0000
  C   C10       1.0  0.61622  0.39734  0.26570  1.0000
  C   C11       1.0  0.26613  0.50830  0.26570  1.0000
  C   C12       1.0  0.61622  0.50830  0.26571  1.0000
  C   C13       1.0  0.36867  0.34258  0.26604  1.0000
  C   C14       1.0  0.51368  0.34258  0.26604  1.0000
  C   C15       1.0  0.36866  0.56306  0.26604  1.0000
  C   C16       1.0  0.51369  0.56306  0.26604  1.0000
  C   C17       1.0  0.30024  0.34289  0.26591  1.0000
  C   C18       1.0  0.58211  0.34289  0.26591  1.0000
  C   C19       1.0  0.30023  0.56275  0.26592  1.0000
  C   C20       1.0  0.58212  0.56275  0.26592  1.0000
  C   C21       1.0  0.19388  0.39675  0.26513  1.0000
  C   C22       1.0  0.68847  0.39675  0.26516  1.0000
  C   C23       1.0  0.19388  0.50888  0.26515  1.0000
  C   C24       1.0  0.68848  0.50888  0.26518  1.0000
  H   H1        1.0  0.39349  0.29891  0.26600  1.0000
  H   H2        1.0  0.48886  0.29891  0.26600  1.0000
  H   H3        1.0  0.39348  0.60673  0.26600  1.0000
  H   H4        1.0  0.48887  0.60673  0.26600  1.0000
  H   H5        1.0  0.27251  0.30064  0.26590  1.0000
  H   H6        1.0  0.60984  0.30065  0.26590  1.0000
  H   H7        1.0  0.27250  0.60499  0.26591  1.0000
  H   H8        1.0  0.60985  0.60499  0.26591  1.0000
